64
Lattice="10.874022766166295 0.0 0.0 0.0 10.87403364018906 0.0 0.0 0.0 10.874001018120763" Properties=species:S:1:pos:R:3:forces:R:3 energy=-9934.481533908724 voigt-stress="-0.015393830576434007 -0.015013713323741434 -0.014734593408720801 -0.0005968024498796435 5.50894569119671e-05 -0.0005968024498796435" free_energy=-9934.481533908724 pbc="1 1 1"
Si       0.09399288      10.81779972      10.80719972      -0.92592444       0.13021635       0.88005493
Si       2.71302953       2.70027974       0.05669498      -0.08150037      -0.31598318      -0.50178164
Si       0.00856873       2.68947966       2.82575944      -0.78113097      -0.35671614      -1.24541846
Si       2.67064042      10.80070032       2.74640952       0.38108994       0.31681030      -0.87506699
Si       1.31659949       1.32040975       1.40591002       0.24804101       0.03888228      -0.10106235
Si       4.05087034       4.05544939       1.39772949      -0.71771496       0.10566051       0.44422621
Si       1.29232976       4.02994002       4.06678012       0.99314105       0.75366027       0.61590699
Si       4.07042945       1.31409955       3.96269942       0.28230687       0.29851253       0.57638554
Si       5.43732999       0.01573036      10.79299934      -0.26762124       0.36849128       0.26193988
Si       8.19523988       2.82507003       0.00553379       0.23979702       0.12596554      -0.20447598
Si       5.47545975       2.73976006       2.65600942       0.27308227      -0.45877916       0.22035922
Si       8.15910007       0.12702381       2.66551984      -0.21840596      -0.94303745       0.18880253
Si       6.83645027       1.38289950       1.23340017      -0.32484474       0.34182199       0.32845020
Si       9.63296946       4.17472002       1.40065025      -0.48944934      -1.26433201       0.00312466
Si       6.84884992       4.12329025       4.03071969       0.47681802      -0.98490683      -1.02363253
Si       9.49249992       1.32727996       4.11319045       0.27037592       0.13223698       0.80600845
Si       0.06663927       5.36027993      10.81569995       0.11326558       0.94511053       0.07308952
Si       2.76098941       8.03914981      10.84780006      -0.01360988       0.59815352      -0.29641426
Si      10.85640032       8.20868996       2.70206961      -0.02294504      -0.93848016       0.62833545
Si       2.66741953       5.44414039       2.75464986       0.33787304       0.02349911       0.09208457
Si       1.33670991       6.80526031       1.35252944      -0.02047292      -0.29903678      -0.02719327
Si       4.06386045       9.54610994       1.26943994      -0.23142757      -0.42664732       0.45377014
Si       1.33170025       9.50820962       4.08645993      -0.09122557      -0.32046667       0.70412411
Si       4.11968007       6.81413025       4.12391985      -0.56921756      -0.21315294      -0.59397342
Si       5.32302988       5.44621951       0.12950309       0.71310729       0.12190089      -1.04687170
Si       8.15155023       8.13958011      10.85350022       0.15925053      -0.16824014       0.40483768
Si       5.41928020       8.20879000       2.69505042       0.33216005       0.02075214      -0.02720921
Si       8.21123013       5.47834028       2.67285002      -0.11828514       0.32358593       0.46194188
Si       6.81034935       6.77542960       1.31399951      -0.36165626       0.55625123       0.73137138
Si       9.48002959       9.48729018       1.40712029       0.01897628       0.83835986      -1.01118222
Si       6.73359941       9.66934959       4.06634951       0.38752695      -0.60594782      -0.04587876
Si       9.49239009       6.80412941       4.15982044       0.13284967       0.65300930      -1.16938066
Si       0.00410494      10.80469978       5.58294947      -0.33251949       0.37848927      -1.10767289
Si       2.69309962       2.63076973       5.35630004      -0.17240558      -0.14704550      -0.77222801
Si       0.06469282       2.72989949       8.09382004       0.29072260      -0.03929417       0.39147231
Si       2.76475943      10.73749941       8.20950007      -0.06336278       0.99950093      -0.80006971
Si       1.44047962       1.32114048       6.77553943      -0.21865793      -0.56612992       0.75578606
Si       4.04037038       3.93119955       6.62991995       0.24793996       1.51946335       0.70632035
Si       1.47564947       4.10435966       9.46207006      -0.26839515      -0.63464622       0.02815127
Si       4.05685975       1.38180013       9.43605939      -0.28267608      -0.29950087       0.94581964
Si       5.35537031       0.05121230       5.50872013       0.37021546       0.09221133      -0.25646908
Si       8.08521978       2.73011045       5.43714948       0.28611622      -0.52287908       0.07020860
Si       5.34381013       2.81321952       8.18032942       0.55633659      -0.39705520      -0.28334971
Si       8.21426942       0.02044751       8.29715992      -1.03303737       0.72531000      -0.24184773
Si       6.74376010       1.41635016       6.88407957       0.25094944      -0.36489173       0.14177886
Si       9.47751987       4.01217948       6.80385973      -0.06931951       0.74622361      -0.21081143
Si       6.67595948       4.14073000       9.57851018       0.61129238       0.25510100      -0.26648199
Si       9.61154002       1.44197045       9.55677953      -0.00913127      -0.24332098      -0.04491743
Si      10.83119978       5.41405958       5.39092945      -0.14964797      -0.53819026       0.87917690
Si       2.65462951       8.09536959       5.46571010       0.32643086       0.25041671       0.16157378
Si      10.75369953       8.12068975       8.16189034       0.52273381       0.40004385       0.26299197
Si       2.76395041       5.44798980       8.06453956       0.10386177      -0.15310534      -0.45598052
Si       1.21890945       6.78205949       6.82000005       0.72769907      -0.24755044      -0.27336920
Si       4.12589022       9.43700000       6.83382963      -0.97443190       0.27805915      -0.73212420
Si       1.39794044       9.42329982       9.48292969      -0.39264345      -0.61664130       0.24085246
Si       4.16312940       6.75934040       9.43948036      -0.35148857       0.08827446       0.21206819
Si       5.47342957       5.31506031       5.30670036      -0.84772717       0.95969331       1.13847779
Si       8.11115976       8.18974959       5.42825018      -0.17058704       0.64436627      -0.23395959
Si       5.50048958       8.16898020       8.10926007       0.52188329      -0.97661168       0.17445372
Si       8.05236936       5.47419945       8.07653035       0.91945400      -0.93456283       1.27354941
Si       6.80716000       6.73449978       6.68728042      -0.92623014       0.62038122      -0.13049146
Si       9.41473000       9.54539008       6.88675023       0.21947322      -0.59006586      -0.39538270
Si       6.77117025       9.47969032       9.56320934       0.61698763       0.26232297      -0.60964584
Si       9.50427975       6.74702013       9.53632985      -0.43406418      -0.34552001      -0.27315169
