64
Lattice="10.862 0.0 0.0 0.0 10.862 0.0 0.0 0.0 10.862" Properties=species:S:1:pos:R:3:force:R:3:descriptors:R:10:quests_delta_entropy_score:R:1 PBC="1 1 1" Energy=-264.5584 quests_delta_entropy_bandwidth=0.015 quests_delta_entropy_approx=F quests_delta_entropy_num_nearest_neighbors=3 quests_delta_entropy_graph_neighbors=10 pbc="T T T"
Si      10.85880000       0.03415980      10.81620000       0.65600500       0.22748800       0.27979800       0.46610190       0.87307880       0.03535540       0.58377016       0.55661777       0.93146371       0.62814607       0.05309831       0.32058946       0.89684392     355.77645778
Si       2.73055000       2.77429000       0.06036780      -0.06201350      -0.59410600      -0.02485580       0.72114688       0.36350019       0.73865184       0.12741705       0.43787327       0.83273324       0.30481708       0.71744472       0.90332957       0.88591525     683.04743866
Si      -0.09275380       2.78812000       2.68701000      -0.53826300      -0.58004200       0.09859970       0.72097379       0.92691553       0.66599883       0.38928756       0.63624857       0.31736500       0.60670078       0.95485132       0.18739282       0.93162890              inf
Si       2.55128000      10.97030000       2.79642000       0.53757100      -1.56186000      -0.24860700       0.79926523       0.23364895       0.22532886       0.12146976       0.12170375       0.86414298       0.04959960       0.74041560       0.45437194       0.03779023     567.30094775
Si       1.25941000       1.41665000       1.41600000       0.35379900       0.39158200      -1.29635000       0.46438568       0.27101721       0.03700808       0.55904028       0.27507501       0.12065049       0.47859705       0.20203416       0.74669131       0.83797500     445.61141081
Si       4.07132000       4.19696000       1.42414000       0.62759400      -1.17781000      -2.01846000       0.60023611       0.82826454       0.59624348       0.34842427       0.29641024       0.36263693       0.75420150       0.86429372       0.99056501       0.42404443     639.17171793
Si       1.32000000       4.03040000       3.94536000       0.22169000       1.29763000       1.53906000       0.89104631       0.61551014       0.83749532       0.55969429       0.80218540       0.50833346       0.13966406       0.39506940       0.15919830       0.62619501     351.72303489
Si       4.10937000       1.31933000       3.99275000      -1.11690000       0.32747600       1.61874000       0.14292709       0.86036310       0.48206000       0.22055544       0.95721106       0.33114400       0.05772996       0.10628062       0.38848343       0.46307955     642.21904851
Si       5.44565000      -0.08948650      10.97810000      -1.35549000      -1.11826000      -1.58989000       0.07258840       0.47180041       0.54983790       0.79797194       0.05956858       0.65624655       0.32348105       0.14433329       0.43220340       0.29645188     255.44123464
Si       8.12662000       2.64359000      11.01610000       1.51063000       0.57010700      -0.84553600       0.13120693       0.36520888       0.61493132       0.11269106       0.65881011       0.29394995       0.73529632       0.81393139       0.83891549       0.28129907     669.31179835
Si       5.35318000       2.64950000       2.61184000       1.57006000       1.05132000       1.11837000       0.50360236       0.16551379       0.18793888       0.76091885       0.82741672       0.01142720       0.42912246       0.70197477       0.43929909       0.14048774     532.93100446
Si       8.15455000      -0.15044200       2.58780000       0.79004400       2.29176000       1.05149000       0.79908541       0.38245933       0.35227873       0.88802501       0.06610538       0.46344041       0.23663666       0.33266131       0.45230039       0.17386194     388.94256957
Si       6.75569000       1.23545000       1.32130000       0.32518500       0.81042200       1.52959000       0.47257207       0.84496384       0.48503358       0.02228347       0.20486215       0.71726343       0.81290099       0.32353555       0.64831661       0.59411697     438.22463838
Si       9.57596000       4.27904000       1.33331000      -2.01071000      -1.23428000       0.42431900       0.46666790       0.17086944       0.83469614       0.56789214       0.53064264       0.73467241       0.98995207       0.37101851       0.71748738       0.26633063     626.04361457
Si       6.70667000       4.08295000       4.18891000      -0.09850140      -0.36613000      -2.93135000       0.38035072       0.81986007       0.37052390       0.85193263       0.65590546       0.48239797       0.65371161       0.31310725       0.99900506       0.53513872     723.12663155
Si       9.45267000       1.34718000       4.07680000      -1.07004000       0.43298500      -0.49803500       0.36850527       0.71964134       0.99912055       0.34423096       0.60034611       0.46295897       0.27052604       0.84053369       0.69562284       0.09807764     469.81856767
Si      10.94240000       5.43892000      -0.11138100       0.08040810       0.75690800      -0.39395600       0.18744649       0.96735710       0.72907231       0.37597018       0.76363399       0.16549957       0.01169363       0.60450356       0.40006553       0.12948733              inf
Si       2.80475000       8.07568000      -0.07373260      -1.46277000       1.15490000       0.15865000       0.89885013       0.26623277       0.47745373       0.74456756       0.27588206       0.98461194       0.06051984       0.39041188       0.90955519       0.64562680     593.00554155
Si       0.02877370       8.10925000       2.70889000      -0.96625500       1.47584000       1.87136000       0.69376284       0.84306669       0.21225569       0.48822789       0.64760488       0.29874410       0.63536926       0.96122382       0.48606638       0.67065895     438.56972456
Si       2.67570000       5.45185000       2.61559000      -1.30969000       1.54347000       0.87560400       0.07049268       0.37221845       0.71998178       0.17259881       0.39304868       0.61629534       0.10657178       0.07246369       0.66348449       0.43008630     294.24546194
Si       1.24544000       6.95785000       1.28337000       2.35144000      -2.62636000      -0.77051400       0.10864820       0.57462632       0.25052058       0.45439149       0.50627111       0.82156678       0.78615009       0.90543231       0.51671854       0.31630179     242.05107283
Si       3.93019000       9.43160000       1.50463000       0.87875400       1.11271000      -0.49678100       0.64300568       0.14526151       0.40077854       0.81199326       0.89427044       0.28682351       0.25343475       0.32125157       0.71143724       0.51731166     429.38536974
Si       1.23730000       9.57965000       4.20128000       0.29128100      -0.05515850      -0.87373900       0.62137626       0.16537488       0.66103033       0.81016313       0.46303931       0.59784715       0.12645191       0.83747697       0.51600720       0.57944040     439.41189230
Si       4.05006000       6.78348000       4.03126000      -0.06230020       0.76593600      -0.31019500       0.66988490       0.97453639       0.23818374       0.87581888       0.31811383       0.95045384       0.33558148       0.64753972       0.51053324       0.15375635     655.26878356
Si       5.39114000       5.43801000      -0.13474700       1.96933000      -1.16233000       2.97561000       0.70763478       0.84960073       0.62062203       0.27848729       0.19133890       0.66293287       0.15998812       0.31332907       0.27194556       0.58745624     315.75383677
Si       8.37170000       8.11398000      10.88250000      -1.23941000       1.03147000       0.63921200       0.50148905       0.38130005       0.64757939       0.88171388       0.78212693       0.07229691       0.41961889       0.34308067       0.48710108       0.02342583     558.81695671
Si       5.50536000       8.24432000       2.81818000       0.10323000      -0.88326300      -0.74978900       0.70782229       0.91138616       0.95509878       0.67971164       0.02022757       0.20389432       0.01306265       0.04108033       0.87346530       0.38008664              inf
Si       7.97972000       5.57318000       2.68999000       2.15040000      -2.38533000       1.49389000       0.31867068       0.07897054       0.34255533       0.76404281       0.53262312       0.17728347       0.65664171       0.87652937       0.16906645       0.11559211     300.30154129
Si       6.86116000       6.83363000       1.27305000      -2.27676000       1.21675000      -0.52017600       0.59701261       0.19142707       0.38614555       0.59994270       0.91310774       0.29864127       0.06130350       0.50869509       0.83470615       0.25953855     453.13309683
Si       9.66115000       9.53298000       1.33235000      -0.51621700      -1.04955000       0.15819400       0.65589024       0.39699071       0.30552298       0.33375154       0.24622018       0.19834470       0.16895230       0.89129718       0.03477089       0.28400717     729.24867220
Si       6.90742000       9.65382000       4.15556000      -1.35986000      -1.56892000      -0.20613800       0.94890442       0.79428081       0.11877598       0.23747726       0.69823724       0.19091247       0.64065031       0.50645750       0.40878266       0.67191835     714.62003797
Si       9.54014000       6.71391000       4.11134000      -2.12091000       2.26156000      -1.52149000       0.83664242       0.66501389       0.82256687       0.31055809       0.55999751       0.30901357       0.67529916       0.27163874       0.13216642       0.38151126     486.98993157
Si      10.75290000      10.96120000       5.55861000      -0.12517400      -1.00549000      -1.99449000       0.79342806       0.18294582       0.33207811       0.92863737       0.29716344       0.08831046       0.16672477       0.98990267       0.60045769       0.59328044     744.44007192
Si       2.66854000       2.70600000       5.40566000       1.02424000      -0.17213900      -0.50874300       0.19122414       0.85045416       0.37168957       0.23064719       0.50076708       0.81432983       0.79520124       0.14118204       0.73557914       0.94954195     548.50674570
Si      -0.13278400       2.72329000       8.16064000       0.66881300      -1.63102000      -0.09016590       0.84926278       0.22397157       0.58852635       0.37546174       0.23530726       0.65238296       0.30539594       0.07437967       0.29052077       0.72386522     413.49746276
Si       2.68466000       0.02410620       8.23376000       0.89797800       0.79931900      -1.78154000       0.71617595       0.24764538       0.67498195       0.66634814       0.19178618       0.61468579       0.75133311       0.68527046       0.70634706       0.77640861     556.21919839
Si       1.29268000       1.34987000       6.72820000       0.75478300       1.01940000       2.30761000       0.00219496       0.33898346       0.26195345       0.99818805       0.04694456       0.73605990       0.56427872       0.40484164       0.37902741       0.72504410              inf
Si       4.18821000       3.94447000       6.83747000      -0.69138600       1.12251000      -1.75568000       0.12732874       0.36474694       0.78067434       0.14793221       0.86567207       0.47564926       0.83550963       0.73560410       0.02114004       0.10000379              inf
Si       1.40202000       3.97112000       9.38901000      -0.01145740       1.27108000       0.33086200       0.03808901       0.16210200       0.45321825       0.91309289       0.04454856       0.49279910       0.83862656       0.56291338       0.42137628       0.65716293     736.89573981
Si       4.10172000       1.36091000       9.54680000       0.33329000      -0.11720300       0.77408800       0.41457769       0.38604904       0.55759269       0.35771917       0.31133068       0.37259374       0.77548677       0.58517602       0.24759218       0.48918075     535.04578350
Si       5.39108000      10.82790000       5.48053000       1.19440000       1.55130000       0.12636800       0.31091164       0.49440159       0.60412840       0.16008087       0.68868640       0.42454413       0.27001010       0.92036103       0.17662024       0.28004997     261.02493298
Si       8.02123000       2.72971000       5.49467000       1.26136000      -0.78895000      -0.29390100       0.96014675       0.52834881       0.05150920       0.17424439       0.47673096       0.08956785       0.84210350       0.36455426       0.63940135       0.05077915              inf
Si       5.54777000       2.67069000       8.17849000      -0.54179700       0.16561200       1.63880000       0.12624250       0.60741871       0.68191952       0.25712741       0.91187492       0.33581717       0.86910539       0.71012823       0.12510514       0.23736550     589.09602560
Si       8.14100000      -0.15984100       8.16480000       0.33526200      -0.04090520      -0.73502000       0.15092256       0.36893572       0.85400519       0.75404705       0.47626803       0.01426371       0.74352958       0.18042891       0.60747231       0.02686869     736.28327487
Si       6.83107000       1.33164000       6.91802000      -0.44550800      -1.32160000      -1.44200000       0.09392987       0.45073961       0.37961523       0.88429248       0.61531571       0.40873219       0.55418754       0.54868573       0.97656367       0.21725071     531.78378550
Si       9.42089000       4.04352000       6.82962000       0.22449900       1.35264000      -0.93995200       0.80071765       0.23391078       0.79851204       0.76290576       0.94596797       0.13317793       0.81716997       0.17305091       0.47601374       0.95217183     426.81509538
Si       6.88373000       4.00711000       9.62140000      -0.34316900       0.92812900      -1.59019000       0.37644138       0.01163312       0.81571953       0.10149168       0.48599838       0.31771772       0.22878064       0.33231440       0.65310279       0.18489451     734.99545025
Si       9.38492000       1.22247000       9.50373000       0.55512500       1.72731000       0.37859800       0.41562134       0.51495512       0.63687286       0.45541266       0.67559635       0.66089951       0.95552255       0.71959201       0.25388439       0.38931177     419.16889249
Si      10.80330000       5.47357000       5.39353000       1.40483000      -2.51321000       0.62607500       0.87115201       0.75529320       0.84440115       0.22916998       0.19246366       0.38135391       0.05084069       0.35071294       0.55769003       0.56985429     314.60207582
Si       2.76414000       8.24627000       5.38873000       1.26466000       0.82051100      -0.28256400       0.10517162       0.44980192       0.05017313       0.67053500       0.40924590       0.94486212       0.41557471       0.43798269       0.39960547       0.60715913     523.37422977
Si      10.99440000       8.16439000       7.99780000       0.11046700      -0.06379860       0.34126400       0.31064391       0.92317734       0.59759772       0.65700101       0.96618316       0.97823624       0.92052895       0.90958750       0.59338747       0.36836881     577.60919511
Si       2.76464000       5.39723000       7.99077000      -0.93507600      -0.59677900      -0.00696244       0.60599075       0.65359876       0.73176884       0.51663859       0.50929027       0.42685479       0.19196811       0.15496158       0.50290372       0.56162319     388.75343394
Si       1.47178000       6.84565000       6.52243000      -0.85906700      -1.26913000       2.40938000       0.28093692       0.32142044       0.84916471       0.14522593       0.07320702       0.49631955       0.82598637       0.14260125       0.64585097       0.39465712     486.79374862
Si       4.19197000       9.51480000       6.92683000      -1.43679000      -1.08596000       0.30445400       0.92265943       0.65794369       0.31578073       0.55311709       0.82570994       0.55936537       0.32658812       0.69470719       0.58157307       0.26768287     493.26988967
Si       1.35830000       9.57417000       9.46366000       0.24194000      -1.69249000       0.77999100       0.72797189       0.19711476       0.08622386       0.36661522       0.00753351       0.37796853       0.74963156       0.85444376       0.24970086       0.45254687     551.11569949
Si       4.03135000       6.57240000       9.49779000      -0.68164100       2.05256000      -1.20545000       0.78309931       0.87416076       0.00851111       0.21929125       0.29326661       0.17524244       0.14432246       0.56344256       0.35668329       0.99100052     497.48372682
Si       5.41034000       5.49188000       5.37777000      -0.59591700      -0.56405500       1.82378000       0.04953541       0.77337994       0.56289760       0.72143706       0.14557454       0.95980345       0.14426688       0.39380115       0.74207751       0.93729185     598.52980270
Si       8.12524000       8.18874000       5.45071000       0.53696100      -1.29735000      -0.84673800       0.75687568       0.58111422       0.23756612       0.20333926       0.58769789       0.33232513       0.29259238       0.74357746       0.15090667       0.94701969     710.50940826
Si       5.46857000       7.96966000       8.31767000      -0.21160900       1.40598000      -0.71802200       0.89944005       0.42159209       0.97441402       0.63987520       0.53368517       0.18458652       0.86667984       0.95304698       0.14203002       0.39208232     482.32927720
Si       8.14623000       5.53267000       8.12521000       0.33213900      -0.75336700       1.38458000       0.00798852       0.13839913       0.90674521       0.44162474       0.61209041       0.11967987       0.65597784       0.89494703       0.88754713       0.16432465              inf
Si       6.76499000       6.82719000       6.78501000      -0.06997540      -0.31058700      -0.32658100       0.20722910       0.49945565       0.92890887       0.55739171       0.85378590       0.60223179       0.97956405       0.20148420       0.50640418       0.20085545     491.25009164
Si       9.54309000       9.41506000       6.69894000      -0.45372800       0.92598500       1.78283000       0.07151378       0.45482652       0.73585345       0.20666263       0.74322386       0.75459960       0.01146053       0.42036612       0.18791668       0.75003283     390.35809013
Si       6.90358000       9.38815000       9.58779000      -1.21045000      -0.03251930       0.56589500       0.83332694       0.57768789       0.58412079       0.95005884       0.32428325       0.33728632       0.91353490       0.96903129       0.19189137       0.56648235     527.53524316
Si       9.61407000       6.94290000       9.47399000       0.62066900      -2.24272000      -1.59320000       0.35872130       0.49162542       0.98528554       0.56252052       0.40383111       0.85260118       0.42332180       0.44180701       0.96791530       0.99417946     744.44007192
